/*--------------------------------*- C++ -*----------------------------------*\
| =========                 |                                                 |
| \\      /  F ield         | OpenFOAM: The Open Source CFD Toolbox           |
|  \\    /   O peration     | Version:  v1712                                 |
|   \\  /    A nd           | Web:      www.OpenFOAM.com                      |
|    \\/     M anipulation  |                                                 |
\*---------------------------------------------------------------------------*/
FoamFile
{
    version     2.0;
    format      binary;
    class       polyBoundaryMesh;
    arch        "LSB;label=32;scalar=64";
    location    "constant/polyMesh";
    object      boundary;
}
// * * * * * * * * * * * * * * * * * * * * * * * * * * * * * * * * * * * * * //

10
(
    frontAndBack
    {
        type            patch;
        nFaces          9;
        startFace       106673;
    }
    inlet
    {
        type            patch;
        nFaces          0;
        startFace       106682;
    }
    outlet
    {
        type            patch;
        nFaces          0;
        startFace       106682;
    }
    lowerWall
    {
        type            wall;
        inGroups        1(wall);
        nFaces          230;
        startFace       106682;
    }
    upperWall
    {
        type            patch;
        nFaces          4;
        startFace       106912;
    }
    foil
    {
        type            wall;
        inGroups        2(motorBikeGroup wall);
        nFaces          3614;
        startFace       106916;
    }
    procBoundary4to1
    {
        type            processor;
        inGroups        1(processor);
        nFaces          2391;
        startFace       110530;
        matchTolerance  0.0001;
        transform       unknown;
        myProcNo        4;
        neighbProcNo    1;
    }
    procBoundary4to2
    {
        type            processor;
        inGroups        1(processor);
        nFaces          48;
        startFace       112921;
        matchTolerance  0.0001;
        transform       unknown;
        myProcNo        4;
        neighbProcNo    2;
    }
    procBoundary4to3
    {
        type            processor;
        inGroups        1(processor);
        nFaces          1910;
        startFace       112969;
        matchTolerance  0.0001;
        transform       unknown;
        myProcNo        4;
        neighbProcNo    3;
    }
    procBoundary4to5
    {
        type            processor;
        inGroups        1(processor);
        nFaces          3310;
        startFace       114879;
        matchTolerance  0.0001;
        transform       unknown;
        myProcNo        4;
        neighbProcNo    5;
    }
)

// ************************************************************************* //
