/*--------------------------------*- C++ -*----------------------------------*\
| =========                 |                                                 |
| \\      /  F ield         | OpenFOAM: The Open Source CFD Toolbox           |
|  \\    /   O peration     | Version:  v1712                                 |
|   \\  /    A nd           | Web:      www.OpenFOAM.com                      |
|    \\/     M anipulation  |                                                 |
\*---------------------------------------------------------------------------*/
FoamFile
{
    version     2.0;
    format      binary;
    class       polyBoundaryMesh;
    arch        "LSB;label=32;scalar=64";
    location    "constant/polyMesh";
    object      boundary;
}
// * * * * * * * * * * * * * * * * * * * * * * * * * * * * * * * * * * * * * //

9
(
    frontAndBack
    {
        type            patch;
        nFaces          45;
        startFace       106718;
    }
    inlet
    {
        type            patch;
        nFaces          36;
        startFace       106763;
    }
    outlet
    {
        type            patch;
        nFaces          0;
        startFace       106799;
    }
    lowerWall
    {
        type            wall;
        inGroups        1(wall);
        nFaces          403;
        startFace       106799;
    }
    upperWall
    {
        type            patch;
        nFaces          20;
        startFace       107202;
    }
    foil
    {
        type            wall;
        inGroups        2(motorBikeGroup wall);
        nFaces          4434;
        startFace       107222;
    }
    procBoundary3to0
    {
        type            processor;
        inGroups        1(processor);
        nFaces          1553;
        startFace       111656;
        matchTolerance  0.0001;
        transform       unknown;
        myProcNo        3;
        neighbProcNo    0;
    }
    procBoundary3to1
    {
        type            processor;
        inGroups        1(processor);
        nFaces          335;
        startFace       113209;
        matchTolerance  0.0001;
        transform       unknown;
        myProcNo        3;
        neighbProcNo    1;
    }
    procBoundary3to4
    {
        type            processor;
        inGroups        1(processor);
        nFaces          1910;
        startFace       113544;
        matchTolerance  0.0001;
        transform       unknown;
        myProcNo        3;
        neighbProcNo    4;
    }
)

// ************************************************************************* //
