/*--------------------------------*- C++ -*----------------------------------*\
| =========                 |                                                 |
| \\      /  F ield         | OpenFOAM: The Open Source CFD Toolbox           |
|  \\    /   O peration     | Version:  v1712                                 |
|   \\  /    A nd           | Web:      www.OpenFOAM.com                      |
|    \\/     M anipulation  |                                                 |
\*---------------------------------------------------------------------------*/
FoamFile
{
    version     2.0;
    format      binary;
    class       polyBoundaryMesh;
    arch        "LSB;label=32;scalar=64";
    location    "constant/polyMesh";
    object      boundary;
}
// * * * * * * * * * * * * * * * * * * * * * * * * * * * * * * * * * * * * * //

8
(
    frontAndBack
    {
        type            patch;
        nFaces          126;
        startFace       111535;
    }
    inlet
    {
        type            patch;
        nFaces          0;
        startFace       111661;
    }
    outlet
    {
        type            patch;
        nFaces          36;
        startFace       111661;
    }
    lowerWall
    {
        type            wall;
        inGroups        1(wall);
        nFaces          424;
        startFace       111697;
    }
    upperWall
    {
        type            patch;
        nFaces          56;
        startFace       112121;
    }
    foil
    {
        type            wall;
        inGroups        2(motorBikeGroup wall);
        nFaces          0;
        startFace       112177;
    }
    procBoundary5to2
    {
        type            processor;
        inGroups        1(processor);
        nFaces          3234;
        startFace       112177;
        matchTolerance  0.0001;
        transform       unknown;
        myProcNo        5;
        neighbProcNo    2;
    }
    procBoundary5to4
    {
        type            processor;
        inGroups        1(processor);
        nFaces          3310;
        startFace       115411;
        matchTolerance  0.0001;
        transform       unknown;
        myProcNo        5;
        neighbProcNo    4;
    }
)

// ************************************************************************* //
