/*--------------------------------*- C++ -*----------------------------------*\
| =========                 |                                                 |
| \\      /  F ield         | OpenFOAM: The Open Source CFD Toolbox           |
|  \\    /   O peration     | Version:  v1712                                 |
|   \\  /    A nd           | Web:      www.OpenFOAM.com                      |
|    \\/     M anipulation  |                                                 |
\*---------------------------------------------------------------------------*/
FoamFile
{
    version     2.0;
    format      binary;
    class       polyBoundaryMesh;
    arch        "LSB;label=32;scalar=64";
    location    "constant/polyMesh";
    object      boundary;
}
// * * * * * * * * * * * * * * * * * * * * * * * * * * * * * * * * * * * * * //

8
(
    frontAndBack
    {
        type            patch;
        nFaces          45;
        startFace       106388;
    }
    inlet
    {
        type            patch;
        nFaces          36;
        startFace       106433;
    }
    outlet
    {
        type            patch;
        nFaces          0;
        startFace       106469;
    }
    lowerWall
    {
        type            wall;
        inGroups        1(wall);
        nFaces          306;
        startFace       106469;
    }
    upperWall
    {
        type            patch;
        nFaces          20;
        startFace       106775;
    }
    foil
    {
        type            wall;
        inGroups        2(motorBikeGroup wall);
        nFaces          5477;
        startFace       106795;
    }
    procBoundary0to1
    {
        type            processor;
        inGroups        1(processor);
        nFaces          1480;
        startFace       112272;
        matchTolerance  0.0001;
        transform       unknown;
        myProcNo        0;
        neighbProcNo    1;
    }
    procBoundary0to3
    {
        type            processor;
        inGroups        1(processor);
        nFaces          1553;
        startFace       113752;
        matchTolerance  0.0001;
        transform       unknown;
        myProcNo        0;
        neighbProcNo    3;
    }
)

// ************************************************************************* //
